&time_control            
run_days                 = 0,
run_hours                = 0,
run_minutes              = 0,
run_seconds              = 0,
 start_year              = SYYYY, 
 start_month             = SMM,  
 start_day               = SDD,  
 start_hour              = SHH,  
 start_minute            = 00,   
 start_second            = 00, 
 end_year                = EYYYY, 
 end_month               = EMM,  
 end_day                 = EDD,  
 end_hour                = EHH,  
 end_minute              = 00,  
 end_second              = 00,  
interval_seconds         = 21600,
input_from_file          = .true.,
history_interval         = 5,
frames_per_outfile       = 12,
restart                  = .false.,
iofields_filename        = 'add_remove_var.txt',
ignore_iofields_warning  = .true.,
restart_interval         = 5000,
io_form_history          = 2,
io_form_restart          = 2,
io_form_input            = 2,
io_form_boundary         = 2,
io_form_auxinput2                   = 2,
auxinput1_inname                    = "met_em.d<domain>.<date>",
io_form_auxinput2                   = 2,
! use SST:
auxinput4_inname                    = "wrflowinp_d<domain>"
io_form_auxinput4                   = 2,
auxinput4_interval                  = 360,
debug_level                         = 100,
/

&domains                 
time_step                = 30,
time_step_fract_num      = 0,
time_step_fract_den      = 1,
max_dom                  = 1,
s_we                     = 1,
e_we                     = 10,
s_sn                     = 1,
e_sn                     = 10,
s_vert                   = 1,
e_vert                   = 33,
num_metgrid_levels       = 38,
dx                       = 10000,
dy                       = 10000,
grid_id                  = 1,
parent_id                = 1,
i_parent_start           = 200,
j_parent_start           = 200,
parent_grid_ratio        = 1,
parent_time_step_ratio   = 1,
!eta_levels = 1.000, 0.997, 0.994, 0.990, 0.985, 0.980, 0.970, 0.960, 0.950, 0.940, 0.922, 0.894, 0.860, 0.817, 0.766, 0.707, 0.644, 0.576,0.507, 0.444, 0.380, 0.324, 0.273, 0.228,0.188, 0.152, 0.121, 0.093, 0.069, 0.048,0.029, 0.014, 0.000,
feedback                            = 0,
smooth_option                       = 1,
/

&physics                 
    mp_physics = 10, 
    ra_lw_physics = 4,
    ra_sw_physics = 4, 
    radt = 30, 
    sf_sfclay_physics = 2, 
    sf_surface_physics = 2,
    bl_pbl_physics = 2, 
    bldt = 0, 
    cu_physics = 5, 
    cudt = 5, 
    cu_diag = 0, 
    isfflx = 1
    ifsnow = 1
    icloud = 1
    surface_input_source = 1
    num_soil_layers = 4
    sf_urban_physics = 1, 
    sst_update = 1
    sst_skin = 1
    progn = 1,
    num_land_cat = 24
/

&fdda                    
/

&dynamics                
w_damping                           = 0,
 diff_opt                            = 1,
 km_opt                              = 4,
 diff_6th_opt                        = 0,    
 diff_6th_factor                     = 0.12, 
 base_temp                           = 290.
 damp_opt                            = 0,
 zdamp                               = 5000., 
 dampcoef                            = 0.2,   
 khdif                               = 0,     
 kvdif                               = 0,    
 non_hydrostatic                     = .true., 
 moist_adv_opt                       = 2,    
 scalar_adv_opt                      = 2,       
/

&bdy_control             
spec_bdy_width           = 5,
spec_zone                = 1,
relax_zone               = 4,
specified                = .true.,
periodic_x               = .false.,
symmetric_xs             = .false.,
symmetric_xe             = .false.,
open_xs                  = .false.,
open_xe                  = .false.,
periodic_y               = .false.,
symmetric_ys             = .false.,
symmetric_ye             = .false.,
open_ys                  = .false.,
open_ye                  = .false.,
nested                   = .false.,
/

&grib2                   
/

&namelist_quilt          
nio_tasks_per_group      = 0,
nio_groups               = 1,
/
                                                                                                                                                      
